
 ANSYS Mechanical Enterprise                       


 *------------------------------------------------------------------*
 |                                                                  |
 |   W E L C O M E   T O   T H E   A N S Y S (R)  P R O G R A M     |
 |                                                                  |
 *------------------------------------------------------------------*




 ***************************************************************
 *            ANSYS Release 18.1     LEGAL NOTICES             *
 ***************************************************************
 *                                                             *
 * Copyright 2017 SAS IP, Inc.  All rights reserved.           *
 * Unauthorized use, distribution or duplication is            *
 * prohibited.                                                 *
 *                                                             *
 * Ansys is a registered trademark of ANSYS, Inc. or its       *
 * subsidiaries in the United States or other countries.       *
 * See the ANSYS, Inc. online documentation or the ANSYS, Inc. *
 * documentation CD or online help for the complete Legal      *
 * Notice.                                                     *
 *                                                             *
 ***************************************************************
 *                                                             *
 * THIS ANSYS SOFTWARE PRODUCT AND PROGRAM DOCUMENTATION       *
 * INCLUDE TRADE SECRETS AND CONFIDENTIAL AND PROPRIETARY      *
 * PRODUCTS OF ANSYS, INC., ITS SUBSIDIARIES, OR LICENSORS.    *
 * The software products and documentation are furnished by    *
 * ANSYS, Inc. or its subsidiaries under a software license    *
 * agreement that contains provisions concerning               *
 * non-disclosure, copying, length and nature of use,          *
 * compliance with exporting laws, warranties, disclaimers,    *
 * limitations of liability, and remedies, and other           *
 * provisions.  The software products and documentation may be *
 * used, disclosed, transferred, or copied only in accordance  *
 * with the terms and conditions of that software license      *
 * agreement.                                                  *
 *                                                             *
 * ANSYS, Inc. is a UL registered                              *
 * ISO 9001:2008 company.                                      *
 *                                                             *
 ***************************************************************
 *                                                             *
 * This product is subject to U.S. laws governing export and   *
 * re-export.                                                  *
 *                                                             *
 * For U.S. Government users, except as specifically granted   *
 * by the ANSYS, Inc. software license agreement, the use,     *
 * duplication, or disclosure by the United States Government  *
 * is subject to restrictions stated in the ANSYS, Inc.        *
 * software license agreement and FAR 12.212 (for non-DOD      *
 * licenses).                                                  *
 *                                                             *
 ***************************************************************

 Release 18.1
     
 Point Releases and Patches installed:   
     
 ANSYS, Inc. Products Release 18.1   
 ANSYS Mechanical Products Release 18.1  
 ANSYS Customization Files for User Programmable Features Release 18.1   
 ANSYS Autodyn Release 18.1  
 ANSYS LS-DYNA Release 18.1  
 ANSYS AIM Release 18.1  
 ANSYS CFX (includes ANSYS CFD-Post) Release 18.1
 ANSYS Fluent (includes ANSYS CFD-Post) Release 18.1 
 ANSYS TurboGrid Release 18.1
 ANSYS FENSAP-ICE Release 18.1   
 ANSYS Polyflow (includes ANSYS CFD-Post) Release 18.1   
 ANSYS CFD-Post only Release 18.1
 ANSYS Forte Release 18.1
 ANSYS Chemkin Release 18.1  
 ANSYS ICEM CFD Release 18.1 
 ANSYS Aqwa Release 18.1 
 ANSYS Viewer Release 18.1   
 ANSYS Icepak (includes ANSYS CFD-Post) Release 18.1 
 ANSYS Remote Solve Manager Standalone Services Release 18.1 
 AutoCAD Release 18.1
 ACIS Release 18.1   
 Catia, Version 4 Release 18.1   
 Catia, Version 5 Release 18.1   
 Catia, Version 6 Release 18.1   
 Creo Elements/Direct Modeling Release 18.1  
 Inventor Release 18.1   
 JTOpen Release 18.1 
 NX Release 18.1 
 Parasolid Release 18.1  
 Creo Parametric Release 18.1
 Solid Edge Release 18.1 
 SolidWorks Release 18.1 
 ANSYS, Inc. License Manager Release 18.1


          *****  ANSYS COMMAND LINE ARGUMENTS  *****
  BATCH MODE REQUESTED (-b)    = NOLIST
  INPUT FILE COPY MODE (-c)    = COPY
  DISTRIBUTED MEMORY PARALLEL REQUESTED
       2 PARALLEL PROCESSES REQUESTED WITH SINGLE THREAD PER PROCESS
    TOTAL OF     2 CORES REQUESTED
  MPI OPTION                   = INTELMPI
  INPUT FILE NAME              = C:\Users\satwi\AppData\Local\Temp\WB_DESKTOP-CMCBQSM_satwi_38904_2\_ProjectScratch\ScrA37C\dummy.dat
  OUTPUT FILE NAME             = C:\Users\satwi\AppData\Local\Temp\WB_DESKTOP-CMCBQSM_satwi_38904_2\_ProjectScratch\ScrA37C\solve.out
  START-UP FILE MODE           = NOREAD
  STOP FILE MODE               = NOREAD

 RELEASE= Release 18.1         BUILD= 18.1      UP20170403   VERSION=WINDOWS x64 
 CURRENT JOBNAME=file0  18:40:16  JUL 08, 2020 CP=      0.125


 PARAMETER _DS_PROGRESS =     999.0000000    

 /INPUT FILE= ds.dat  LINE=       0



 *** NOTE ***                            CP =       0.203   TIME= 18:40:16
 The /CONFIG,NOELDB command is not valid in a Distributed ANSYS          
 solution.  Command is ignored.                                          

 *GET  _WALLSTRT  FROM  ACTI  ITEM=TIME WALL  VALUE=  18.6711111    

 TITLE= 
 unsaved_project--Modal (G5)                                                   

  ACT Extensions:
      MechanicalDropTest, 2.0
      f0fd899f-9d88-4f46-8cf1-36bf5c218d65, wbex
  

 SET PARAMETER DIMENSIONS ON  _WB_PROJECTSCRATCH_DIR
  TYPE=STRI  DIMENSIONS=      248        1        1

 PARAMETER _WB_PROJECTSCRATCH_DIR(1) = C:\Users\satwi\AppData\Local\Temp\WB_DESKTOP-CMCBQSM_satwi_38904_2\_ProjectScratch\ScrA37C\

 SET PARAMETER DIMENSIONS ON  _WB_SOLVERFILES_DIR
  TYPE=STRI  DIMENSIONS=      248        1        1

 PARAMETER _WB_SOLVERFILES_DIR(1) = C:\Users\satwi\AppData\Local\Temp\WB_DESKTOP-CMCBQSM_satwi_38904_2\unsaved_project_files\dp0\SYS-6\MECH\

 SET PARAMETER DIMENSIONS ON  _WB_USERFILES_DIR
  TYPE=STRI  DIMENSIONS=      248        1        1

 PARAMETER _WB_USERFILES_DIR(1) = C:\Users\satwi\AppData\Local\Temp\WB_DESKTOP-CMCBQSM_satwi_38904_2\unsaved_project_files\user_files\
 --- Data in consistent MKS units. See Solving Units in the help system for more

 MKS UNITS SPECIFIED FOR INTERNAL    
  LENGTH        (l)  = METER (M)
  MASS          (M)  = KILOGRAM (KG)
  TIME          (t)  = SECOND (SEC)
  TEMPERATURE   (T)  = CELSIUS (C)
  TOFFSET            = 273.0
  CHARGE        (Q)  = COULOMB
  FORCE         (f)  = NEWTON (N) (KG-M/SEC2)
  HEAT               = JOULE (N-M)

  PRESSURE           = PASCAL (NEWTON/M**2)
  ENERGY        (W)  = JOULE (N-M)
  POWER         (P)  = WATT (N-M/SEC)
  CURRENT       (i)  = AMPERE (COULOMBS/SEC)
  CAPACITANCE   (C)  = FARAD
  INDUCTANCE    (L)  = HENRY
  MAGNETIC FLUX      = WEBER
  RESISTANCE    (R)  = OHM
  ELECTRIC POTENTIAL = VOLT

 INPUT  UNITS ARE ALSO SET TO MKS 

 *** ANSYS - ENGINEERING ANALYSIS SYSTEM  RELEASE Release 18.1     18.1     ***
 DISTRIBUTED ANSYS Mechanical Enterprise                       

 00000000  VERSION=WINDOWS x64   18:40:16  JUL 08, 2020 CP=      0.203

 unsaved_project--Modal (G5)                                                   



          ***** ANSYS ANALYSIS DEFINITION (PREP7) *****
 *********** Nodes for the whole assembly ***********
 *********** Elements for Body 1 "Extracted Beam (Circular Tube)" ***********
 *********** Send User Defined Coordinate System(s) ***********
 *********** Set Reference Temperature ***********
 *********** Send Materials ***********
 *********** Send Beam Properties ***********
 *********** Fixed Supports ***********


 ***** ROUTINE COMPLETED *****  CP =         0.234


 --- Number of total nodes = 827
 --- Number of contact elements = 0
 --- Number of spring elements = 0
 --- Number of bearing elements = 0
 --- Number of solid elements = 431
 --- Number of condensed parts = 0
 --- Number of total elements = 431

 *GET  _WALLBSOL  FROM  ACTI  ITEM=TIME WALL  VALUE=  18.6711111    

 *****  ANSYS SOLUTION ROUTINE  *****


 PERFORM A MODAL ANALYSIS
  THIS WILL BE A NEW ANALYSIS


 USE SYM. BLOCK LANCZOS MODE EXTRACTION METHOD
  EXTRACT    6 MODES
  NORMALIZE THE MODE SHAPES TO THE MASS MATRIX

 ERASE THE CURRENT DATABASE OUTPUT CONTROL TABLE.


 WRITE ALL  ITEMS TO THE DATABASE WITH A FREQUENCY OF NONE
   FOR ALL APPLICABLE ENTITIES

 WRITE NSOL ITEMS TO THE DATABASE WITH A FREQUENCY OF ALL 
   FOR ALL APPLICABLE ENTITIES

 WRITE STRS ITEMS TO THE DATABASE WITH A FREQUENCY OF ALL 
   FOR ALL APPLICABLE ENTITIES

 WRITE NLOA ITEMS TO THE DATABASE WITH A FREQUENCY OF ALL 
   FOR ALL APPLICABLE ENTITIES

 WRITE MISC ITEMS TO THE DATABASE WITH A FREQUENCY OF ALL 
   FOR ALL APPLICABLE ENTITIES


 EXPAND ALL EXTRACTED MODES
  CALCULATE ELEMENT RESULTS AND NODAL DOF SOLUTION
  CALCULATE STRESSES IN ANY DOWNSTREAM MODE SUPERPOSITION EXPANSION PASS

 *GET  ANSINTER_  FROM  ACTI  ITEM=INT        VALUE=  0.00000000    

 *IF  ANSINTER_                         ( =   0.00000     )  NE  
      0                                 ( =   0.00000     )  THEN    

 *ENDIF

 *****  ANSYS SOLVE    COMMAND  *****

 *** WARNING ***                         CP =       0.281   TIME= 18:40:16
 Element shape checking is currently inactive.  Issue SHPP,ON or         
 SHPP,WARN to reactivate, if desired.                                    

 *** NOTE ***                            CP =       0.281   TIME= 18:40:16
 The model data was checked and warning messages were found.             
  Please review output or errors file (                                  
 C:\Users\satwi\AppData\Local\Temp\WB_DESKTOP-CMCBQSM_satwi_38904_2\_Pro 
 ojectScratch\ScrA37C\file0.err ) for these warning messages.            

 *** SELECTION OF ELEMENT TECHNOLOGIES FOR APPLICABLE ELEMENTS ***
      --- GIVE SUGGESTIONS AND RESET THE KEY OPTIONS ---

 ELEMENT TYPE    1 IS BEAM188 . KEYOPT(3) IS ALREADY SET AS SUGGESTED AND NO
 RESETTING IS NEEDED.

 ELEMENT TYPE    1 IS BEAM188 . KEYOPT(15) IS ALREADY SET AS SUGGESTED AND NO
 RESETTING IS NEEDED.



 *** ANSYS - ENGINEERING ANALYSIS SYSTEM  RELEASE Release 18.1     18.1     ***
 DISTRIBUTED ANSYS Mechanical Enterprise                       

 00000000  VERSION=WINDOWS x64   18:40:16  JUL 08, 2020 CP=      0.281

 unsaved_project--Modal (G5)                                                   



                       S O L U T I O N   O P T I O N S

   PROBLEM DIMENSIONALITY. . . . . . . . . . . . .3-D                  
   DEGREES OF FREEDOM. . . . . . UX   UY   UZ   ROTX ROTY ROTZ
   ANALYSIS TYPE . . . . . . . . . . . . . . . . .MODAL                
      EXTRACTION METHOD. . . . . . . . . . . . . .BLOCK LANCZOS
   OFFSET TEMPERATURE FROM ABSOLUTE ZERO . . . . .  273.15    
   NUMBER OF MODES TO EXTRACT. . . . . . . . . . .     6
   GLOBALLY ASSEMBLED MATRIX . . . . . . . . . . .SYMMETRIC  
   NUMBER OF MODES TO EXPAND . . . . . . . . . . .ALL
   ELEMENT RESULTS CALCULATION . . . . . . . . . .ON 

 *** NOTE ***                            CP =       0.281   TIME= 18:40:16
 The conditions for direct assembly have been met.  No .emat or .erot    
 files will be produced.                                                 

 *** NOTE ***                            CP =       0.281   TIME= 18:40:16
 Internal nodes from 828 to 1258 are created.                            
 431 internal nodes are used for quadratic and/or cubic options of       
 BEAM188, PIPE288, and/or SHELL208.                                      

  
  
     D I S T R I B U T E D   D O M A I N   D E C O M P O S E R
  
  ...Number of elements: 431
  ...Number of nodes:    1258
  ...Decompose to 2 CPU domains
  ...Element load balance ratio =     1.005


                      L O A D   S T E P   O P T I O N S

   LOAD STEP NUMBER. . . . . . . . . . . . . . . .     1
   THERMAL STRAINS INCLUDED IN THE LOAD VECTOR . .   YES
   PRINT OUTPUT CONTROLS . . . . . . . . . . . . .NO PRINTOUT
   DATABASE OUTPUT CONTROLS
      ITEM     FREQUENCY   COMPONENT
       ALL       NONE               
      NSOL        ALL               
      STRS        ALL               
      NLOA        ALL               
      MISC        ALL               



                         ***********  PRECISE MASS SUMMARY  ***********

   TOTAL RIGID BODY MASS MATRIX ABOUT ORIGIN
               Translational mass               |   Coupled translational/rotational mass
         35.156        0.0000        0.0000     |     0.0000        7.8786       -15.415    
         0.0000        35.156        0.0000     |    -7.8786        0.0000      -0.94255E-01
         0.0000        0.0000        35.156     |     15.415       0.94255E-01    0.0000    
     ------------------------------------------ | ------------------------------------------
                                                |         Rotational mass (inertia)
                                                |     23.994      -0.11097E-01   0.21952E-01
                                                |   -0.11097E-01    13.800       -2.5098    
                                                |    0.21952E-01   -2.5098        13.559    

   TOTAL MASS =  35.156    
     The mass principal axes coincide with the global Cartesian axes

   CENTER OF MASS (X,Y,Z)=  -0.26811E-02   0.43847       0.22411    

   TOTAL INERTIA ABOUT CENTER OF MASS
         15.469      -0.52425E-01   0.82866E-03
       -0.52425E-01    12.034       0.94475    
        0.82866E-03   0.94475        6.8000    

   PRINCIPAL INERTIAS =    15.470        12.198        6.6347    
   ORIENTATION VECTORS OF THE INERTIA PRINCIPAL AXES IN GLOBAL CARTESIAN
     ( 1.000,-0.016,-0.002) ( 0.016, 0.985, 0.172) (-0.001,-0.172, 0.985) 


  *** MASS SUMMARY BY ELEMENT TYPE ***

  TYPE      MASS
     1   35.1556    

 Range of element maximum matrix coefficients in global coordinates
 Maximum = 1.123767037E+10 at element 11.                                
 Minimum = 1.538446644E+09 at element 280.                               

   *** ELEMENT MATRIX FORMULATION TIMES
     TYPE    NUMBER   ENAME      TOTAL CP  AVE CP

        1       431  BEAM188       0.062   0.000145
 Time at end of element matrix formulation CP = 0.390625.                

  BLOCK LANCZOS CALCULATION OF UP TO    6 EIGENVECTORS.
  NUMBER OF EQUATIONS              =         4938
  MAXIMUM WAVEFRONT                =           48
  MAXIMUM MODES STORED             =            6
  MINIMUM EIGENVALUE               =  0.00000E+00
  MAXIMUM EIGENVALUE               =  0.10000E+31


  Local memory allocated for solver              =      2.167 MB
  Local memory required for in-core solution     =      2.070 MB
  Local memory required for out-of-core solution =      1.479 MB

  Total memory allocated for solver              =      4.321 MB
  Total memory required for in-core solution     =      4.126 MB
  Total memory required for out-of-core solution =      2.940 MB

 *** NOTE ***                            CP =       0.781   TIME= 18:40:18
 The Distributed Sparse Matrix Solver used by the Block Lanczos          
 eigensolver is currently running in the in-core memory mode.  This      
 memory mode uses the most amount of memory in order to avoid using the  
 hard drive as much as possible, which most often results in the         
 fastest solution time.  This mode is recommended if enough physical     
 memory is present to accommodate all of the solver data.                

 *** ANSYS - ENGINEERING ANALYSIS SYSTEM  RELEASE Release 18.1     18.1     ***
 DISTRIBUTED ANSYS Mechanical Enterprise                       

 00000000  VERSION=WINDOWS x64   18:40:19  JUL 08, 2020 CP=      0.875

 unsaved_project--Modal (G5)                                                   



 *** FREQUENCIES FROM BLOCK LANCZOS ITERATION ***

  MODE    FREQUENCY (HERTZ)      


    1     36.30695527069    
    2     47.21888890138    
    3     51.70504676579    
    4     75.60227567507    
    5     103.2271140645    
    6     126.8984308497    

   *** ELEMENT RESULT CALCULATION TIMES
     TYPE    NUMBER   ENAME      TOTAL CP  AVE CP

        1       431  BEAM188       0.016   0.000036

   *** NODAL LOAD CALCULATION TIMES
     TYPE    NUMBER   ENAME      TOTAL CP  AVE CP

        1       431  BEAM188       0.000   0.000000

 *** ANSYS - ENGINEERING ANALYSIS SYSTEM  RELEASE Release 18.1     18.1     ***
 DISTRIBUTED ANSYS Mechanical Enterprise                       

 00000000  VERSION=WINDOWS x64   18:40:19  JUL 08, 2020 CP=      0.969

 unsaved_project--Modal (G5)                                                   





          ***** PARTICIPATION FACTOR CALCULATION *****  X  DIRECTION
                                                                                  CUMULATIVE     RATIO EFF.MASS
  MODE   FREQUENCY       PERIOD      PARTIC.FACTOR     RATIO    EFFECTIVE MASS   MASS FRACTION   TO TOTAL MASS
     1     36.3070       0.27543E-01  -0.79684E-01    0.024523    0.634958E-02    0.273070E-03    0.180614E-03
     2     47.2189       0.21178E-01   -3.2493        1.000000     10.5582        0.454338        0.300328    
     3     51.7050       0.19340E-01  -0.14869        0.045760    0.221083E-01    0.455289        0.628871E-03
     4     75.6023       0.13227E-01    1.5261        0.469664     2.32897        0.555449        0.662477E-01
     5     103.227       0.96874E-02    1.4475        0.445479     2.09529        0.645559        0.596005E-01
     6     126.898       0.78803E-02   -2.8708        0.883513     8.24169         1.00000        0.234435    
 -----------------------------------------------------------------------------------------------------------------
   sum                                                             23.2526                        0.661420    
 -----------------------------------------------------------------------------------------------------------------



          ***** PARTICIPATION FACTOR CALCULATION *****  Y  DIRECTION
                                                                                  CUMULATIVE     RATIO EFF.MASS
  MODE   FREQUENCY       PERIOD      PARTIC.FACTOR     RATIO    EFFECTIVE MASS   MASS FRACTION   TO TOTAL MASS
     1     36.3070       0.27543E-01   -3.3592        1.000000     11.2842        0.586990        0.320978    
     2     47.2189       0.21178E-01  -0.75412E-01    0.022450    0.568703E-02    0.587285        0.161768E-03
     3     51.7050       0.19340E-01    2.8167        0.838493     7.93357        0.999980        0.225670    
     4     75.6023       0.13227E-01   0.16310E-01    0.004855    0.266024E-03    0.999994        0.756705E-05
     5     103.227       0.96874E-02  -0.40263E-02    0.001199    0.162114E-04    0.999995        0.461133E-06
     6     126.898       0.78803E-02  -0.97145E-02    0.002892    0.943708E-04     1.00000        0.268438E-05
 -----------------------------------------------------------------------------------------------------------------
   sum                                                             19.2238                        0.546821    
 -----------------------------------------------------------------------------------------------------------------



          ***** PARTICIPATION FACTOR CALCULATION *****  Z  DIRECTION
                                                                                  CUMULATIVE     RATIO EFF.MASS
  MODE   FREQUENCY       PERIOD      PARTIC.FACTOR     RATIO    EFFECTIVE MASS   MASS FRACTION   TO TOTAL MASS
     1     36.3070       0.27543E-01    1.1132        0.430117     1.23919        0.155684        0.352487E-01
     2     47.2189       0.21178E-01  -0.99880E-01    0.038592    0.997602E-02    0.156937        0.283768E-03
     3     51.7050       0.19340E-01    2.5881        1.000000     6.69828        0.998468        0.190532    
     4     75.6023       0.13227E-01   0.61419E-01    0.023731    0.377234E-02    0.998942        0.107304E-03
     5     103.227       0.96874E-02   0.38407E-01    0.014840    0.147512E-02    0.999127        0.419598E-04
     6     126.898       0.78803E-02  -0.83345E-01    0.032203    0.694643E-02     1.00000        0.197591E-03
 -----------------------------------------------------------------------------------------------------------------
   sum                                                             7.95964                        0.226412    
 -----------------------------------------------------------------------------------------------------------------



          ***** PARTICIPATION FACTOR CALCULATION *****ROTX DIRECTION
                                                                                  CUMULATIVE     RATIO EFF.MASS
  MODE   FREQUENCY       PERIOD      PARTIC.FACTOR     RATIO    EFFECTIVE MASS   MASS FRACTION   TO TOTAL MASS
     1     36.3070       0.27543E-01    4.1548        1.000000     17.2624        0.785310        0.719458    
     2     47.2189       0.21178E-01  -0.18365        0.044201    0.337261E-01    0.786844        0.140563E-02
     3     51.7050       0.19340E-01    2.1639        0.520819     4.68246        0.999862        0.195155    
     4     75.6023       0.13227E-01   0.31432E-01    0.007565    0.987991E-03    0.999907        0.411773E-04
     5     103.227       0.96874E-02   0.30457E-02    0.000733    0.927655E-05    0.999907        0.386627E-06
     6     126.898       0.78803E-02  -0.45190E-01    0.010877    0.204215E-02     1.00000        0.851124E-04
 -----------------------------------------------------------------------------------------------------------------
   sum                                                             21.9816                        0.916145    
 -----------------------------------------------------------------------------------------------------------------



          ***** PARTICIPATION FACTOR CALCULATION *****ROTY DIRECTION
                                                                                  CUMULATIVE     RATIO EFF.MASS
  MODE   FREQUENCY       PERIOD      PARTIC.FACTOR     RATIO    EFFECTIVE MASS   MASS FRACTION   TO TOTAL MASS
     1     36.3070       0.27543E-01  -0.57821E-01    0.024066    0.334323E-02    0.283233E-03    0.242267E-03
     2     47.2189       0.21178E-01   -2.4026        1.000000     5.77242        0.489314        0.418299    
     3     51.7050       0.19340E-01  -0.14052        0.058487    0.197457E-01    0.490986        0.143087E-02
     4     75.6023       0.13227E-01    1.9779        0.823250     3.91220        0.822422        0.283498    
     5     103.227       0.96874E-02   0.94165        0.391931    0.886701        0.897542        0.642548E-01
     6     126.898       0.78803E-02    1.0997        0.457726     1.20940         1.00000        0.876392E-01
 -----------------------------------------------------------------------------------------------------------------
   sum                                                             11.8038                        0.855364    
 -----------------------------------------------------------------------------------------------------------------



          ***** PARTICIPATION FACTOR CALCULATION *****ROTZ DIRECTION
                                                                                  CUMULATIVE     RATIO EFF.MASS
  MODE   FREQUENCY       PERIOD      PARTIC.FACTOR     RATIO    EFFECTIVE MASS   MASS FRACTION   TO TOTAL MASS
     1     36.3070       0.27543E-01   0.71019E-01    0.028225    0.504367E-02    0.628747E-03    0.371975E-03
     2     47.2189       0.21178E-01    2.5162        1.000000     6.33105        0.789861        0.466920    
     3     51.7050       0.19340E-01   0.82241E-01    0.032685    0.676352E-02    0.790704        0.498816E-03
     4     75.6023       0.13227E-01   0.75152        0.298677    0.564779        0.861110        0.416530E-01
     5     103.227       0.96874E-02  -0.24854        0.098777    0.617711E-01    0.868810        0.455567E-02
     6     126.898       0.78803E-02    1.0259        0.407707     1.05238         1.00000        0.776136E-01
 -----------------------------------------------------------------------------------------------------------------
   sum                                                             8.02178                        0.591613    
 -----------------------------------------------------------------------------------------------------------------


 *** ANSYS BINARY FILE STATISTICS
  BUFFER SIZE USED= 16384
        0.625 MB WRITTEN ON ASSEMBLED MATRIX FILE: file0.full
        0.188 MB WRITTEN ON MODAL MATRIX FILE: file0.mode
        2.812 MB WRITTEN ON RESULTS FILE: file0.rst
 *************** Write FE CONNECTORS *********

 WRITE OUT CONSTRAINT EQUATIONS TO FILE= file.ce                                                                                                                                                                                                                                                             

 *GET  _NMODALSOLPROC  FROM  ACTI  ITEM=NUMC       VALUE=  2.00000000    

 FINISH SOLUTION PROCESSING


 ***** ROUTINE COMPLETED *****  CP =         0.969



 PRINTOUT RESUMED BY /GOP

 *GET  _WALLASOL  FROM  ACTI  ITEM=TIME WALL  VALUE=  18.6719444    

 *** ANSYS - ENGINEERING ANALYSIS SYSTEM  RELEASE Release 18.1     18.1     ***
 DISTRIBUTED ANSYS Mechanical Enterprise                       

 00000000  VERSION=WINDOWS x64   18:40:19  JUL 08, 2020 CP=      0.969

 unsaved_project--Modal (G5)                                                   



          ***** ANSYS RESULTS INTERPRETATION (POST1) *****

 *** NOTE ***                            CP =       0.969   TIME= 18:40:19
 Reading results into the database (SET command) will update the current 
 displacement and force boundary conditions in the database with the     
 values from the results file for that load set.  Note that any          
 subsequent solutions will use these values unless action is taken to    
 either SAVE the current values or not overwrite them (/EXIT,NOSAVE).    

 PRINTOUT RESUMED BY /GOP

 Set Encoding of XML File to:ISO-8859-1

 Set Output of XML File to:
     PARM,     ,     ,     ,     ,     ,     ,     ,     ,     ,     ,     ,
         ,     ,     ,     ,     ,     ,     ,

 DATABASE WRITTEN ON FILE  parm.xml                                                                                                                                                                                                                                                            

 EXIT THE ANSYS POST1 DATABASE PROCESSOR


 ***** ROUTINE COMPLETED *****  CP =         1.047



 PRINTOUT RESUMED BY /GOP

 *GET  _WALLDONE  FROM  ACTI  ITEM=TIME WALL  VALUE=  18.6719444    

 PARAMETER _PREPTIME =     0.000000000    

 PARAMETER _SOLVTIME =     3.000000000    

 PARAMETER _POSTTIME =     0.000000000    

 PARAMETER _TOTALTIM =     3.000000000    

 EXIT ANSYS WITHOUT SAVING DATABASE


 NUMBER OF WARNING MESSAGES ENCOUNTERED=          1
 NUMBER OF ERROR   MESSAGES ENCOUNTERED=          0

+--------- D I S T R I B U T E D   A N S Y S   S T A T I S T I C S ------------+

Release: Release 18.1       Build: 18.1       Update: UP20170403   Platform: WINDOWS x64 
Date Run: 07/08/2020   Time: 18:40     Process ID: 73624
Operating System: Windows 10  (Build: 19041)

Processor Model: Intel(R) Core(TM) i5-8300H CPU @ 2.30GHz

Compiler: Intel(R) FORTRAN Compiler Version 15.0.7  (Build: 20160518)
          Intel(R) C/C++ Compiler Version 15.0.7  (Build: 20160518)
          Intel(R) Math Kernel Library Version 11.3.3 Product Build 20160413

Number of machines requested            :    1
Total number of cores available         :    8
Number of physical cores available      :    4
Number of processes requested           :    2
Number of threads per process requested :    1
Total number of cores requested         :    2 (Distributed Memory Parallel)               
MPI Type: INTELMPI
MPI Version: Intel(R) MPI Library 5.1.3 for Windows* OS


GPU Acceleration: Not Requested

Job Name: file0
Input File: dummy.dat

  Core                Machine Name   Working Directory
  ----------------------------------------------------
     0             DESKTOP-CMCBQSM   C:\Users\satwi\AppData\Local\Temp\WB_DESKTOP-CMCBQSM_satwi_38904_2\_ProjectScratch\ScrA37C
     1             DESKTOP-CMCBQSM   C:\Users\satwi\AppData\Local\Temp\WB_DESKTOP-CMCBQSM_satwi_38904_2\_ProjectScratch\ScrA37C
 
Latency time from master to core    1 =    1.603 microseconds
 
Communication speed from master to core    1 =  5949.19 MB/sec

Total CPU time for main thread                    :        0.7 seconds
Total CPU time summed for all threads             :        1.4 seconds

Elapsed time spent pre-processing model (/PREP7)  :        0.0 seconds
Elapsed time spent solution - preprocessing       :        0.0 seconds
Elapsed time spent computing solution             :        2.5 seconds
Elapsed time spent solution - postprocessing      :        0.0 seconds
Elapsed time spent post-processing model (/POST1) :        0.1 seconds
 
Eigensolver used                                  :            Block Lanczos
Equation solver computational rate                :       75.2 Mflops

Maximum total memory used                         :       87.0 MB
Maximum total memory allocated                    :     3136.0 MB
Total physical memory available                   :          8 GB

+------ E N D   D I S T R I B U T E D   A N S Y S   S T A T I S T I C S -------+


 *---------------------------------------------------------------------------*
 |                                                                           |
 |                       DISTRIBUTED ANSYS RUN COMPLETED                     |
 |                                                                           |
 |---------------------------------------------------------------------------|
 |                                                                           |
 | Ansys Release 18.1          Build 18.1         UP20170403     WINDOWS x64 |
 |                                                                           |
 |---------------------------------------------------------------------------|
 |                                                                           |
 | Database Requested(-db)  1024 MB    Scratch Memory Requested      1024 MB |
 | Maximum Database Used       1 MB    Maximum Scratch Memory Used     43 MB |
 |                                                                           |
 |---------------------------------------------------------------------------|
 |                                                                           |
 |        CP Time      (sec) =          1.375       Time  =  18:40:20        |
 |        Elapsed Time (sec) =          5.000       Date  =  07/08/2020      |
 |                                                                           |
 *---------------------------------------------------------------------------*
